8
Lattice="4.008835955691972 0.23835857330899368 0.07949544098366038 1.3635830946551357 3.884177765773783 0.12234683057438832 0.11099590850841956 0.18201101666580477 4.490722803926299" Properties=species:S:1:pos:R:3 name=cabal-in-out pressure=0.0 energy=0.0 spacegroup=n/a times_found=1 pbc="T T T"
B       -1.70927766      -1.83140334       0.02673309
B       -0.32188974       1.12736183      -1.95313156
B       -0.78965839      -1.64284421       1.37284136
B       -0.34485699      -1.95211960      -1.22506623
B       -0.65457258       0.44762508       0.69205779
B        1.09359337      -0.98898395      -1.28010026
B       -0.14416553      -0.21976344       2.02761943
B       -1.65405204       0.05870482      -1.74375390
8
Lattice="4.003600699377659 0.2385947942274071 0.07859576996152334 1.3623431051250305 3.8840607466174846 0.12360854059830924 0.10991029928882974 0.1838382280366651 4.509699675222532" Properties=species:S:1:pos:R:3 name=cabal-in-out pressure=0.0 energy=0.0 spacegroup=n/a times_found=1 pbc="T T T"
B       -1.70653996      -1.83001320       0.02930573
B       -0.32019842       1.12602954      -1.96285937
B       -0.78982890      -1.64463694       1.37843751
B       -0.34498984      -1.95307394      -1.22933579
B       -0.65338472       0.44709539       0.69582243
B        1.09089110      -0.98972231      -1.28619459
B       -0.14598522      -0.21616535       2.03470080
B       -1.64920368       0.05827806      -1.75152531
8
Lattice="4.467273256201238 -0.04407251109303119 0.1929782993956359 -2.259407029093659 3.5101609804421896 -0.30574266996975596 -0.9507923668891854 -0.9785965636450182 4.2072442163072035" Properties=species:S:1:pos:R:3 name=cabal-in-out pressure=0.0 energy=0.0 spacegroup=n/a times_found=1 pbc="T T T"
B       -1.49897601       0.28612863      -1.97539441
B        1.41312038       0.91405801       0.51077103
B       -1.78238592      -0.21222333       0.62519532
B       -0.10783459       1.24533690      -2.15668114
B       -1.55755475       1.48780078      -0.35924118
B        0.20479876       1.68096219      -0.62062181
B        1.58318173       0.97466496      -1.22046534
B        1.01361627      -0.82462597       0.86586073
8
Lattice="3.29287201475745 -0.27116895422565657 0.16058091680980338 -1.2104183837609386 3.082085685096454 -0.4446351616411528 -1.0178257594452582 -1.755702044232169 7.456859755465544" Properties=species:S:1:pos:R:3 name=cabal-in-out pressure=0.0 energy=0.0 spacegroup=n/a times_found=1 pbc="T T T"
B        0.46662279       0.77105823       1.01719619
B        0.90786118       0.19178760      -2.52658812
B        2.33023721      -0.66735884      -2.00877559
B       -0.23963381       1.15376482      -1.67228253
B        1.58623485       1.22079914      -3.49454893
B       -1.71156153      -0.72144645       1.93307886
B        2.15603233      -1.41534268      -0.37400895
B        0.88644914      -1.03778220       0.49609743
8
Lattice="2.9872031495468327 0.9150780733627049 -0.08438329743204043 2.6715392150658372 5.902577461605676 -0.18635416282337072 0.9286177089272535 2.0105914301880445 4.010042868259693" Properties=species:S:1:pos:R:3 name=cabal-in-out pressure=0.0 energy=0.0 spacegroup=n/a times_found=1 pbc="T T T"
B       -1.68593419      -1.55142626       0.94176367
B        0.15755399       1.78737753       1.91867582
B        2.17943003       2.98381711       0.48784853
B        1.74506454       1.48235403      -0.70262904
B        2.20522503       4.01834990       1.85516262
B        0.13747389       0.75291296       0.56612552
B        0.00091247      -1.59977004      -1.63937691
B       -1.85046601      -3.06106410      -0.51208780
